/*--------------------------------*- C++ -*----------------------------------*\
| =========                 |                                                 |
| \\      /  F ield         | OpenFOAM: The Open Source CFD Toolbox           |
|  \\    /   O peration     | Version:  v2312                                 |
|   \\  /    A nd           | Website:  www.openfoam.com                      |
|    \\/     M anipulation  |                                                 |
\*---------------------------------------------------------------------------*/
FoamFile
{
    version     2.0;
    format      ascii;
    class       dictionary;
    object      controlDict;
}
// * * * * * * * * * * * * * * * * * * * * * * * * * * * * * * * * * * * * * //

application     coalChemistryFoam;

startFrom       latestTime;

startTime       0;

stopAt          endTime;

endTime         0.000015;//0.1251;

deltaT          0.00001;

writeControl    adjustable;

writeInterval   0.00001;

purgeWrite      0;

writeFormat     ascii;

writePrecision  10;

writeCompression off;

timeFormat      general;

timePrecision   6;

runTimeModifiable true;

adjustTimeStep  yes;

maxCo          0.09;

maxDeltaT       1e-3;
functions
{
	#include volAvgP
	//#include probes
	//#include preAvg
   // 	#include "dataCloud"
   // 	#include "vtkCloud"
   // 	#include "runTimePostProcessing"
    /*wallHeatFlux
    {
        type            wallHeatFlux;
        libs            ("libfieldFunctionObjects.so");
        regionType      wall;
        writeControl    adjustable;
        writeInterval   0.01;
        qr      dummy;
        patches         (walls);
        //thermalConductivity kappa;
    }*/
}

// ************************************************************************* //
