/*--------------------------------*- C++ -*----------------------------------*\
| =========                 |                                                 |
| \\      /  F ield         | OpenFOAM: The Open Source CFD Toolbox           |
|  \\    /   O peration     | Version:  v2312                                 |
|   \\  /    A nd           | Website:  www.openfoam.com                      |
|    \\/     M anipulation  |                                                 |
\*---------------------------------------------------------------------------*/
FoamFile
{
    version     2.0;
    format      ascii;
    class       dictionary;
    object      fvSolution;
}
// * * * * * * * * * * * * * * * * * * * * * * * * * * * * * * * * * * * * * //

solvers
{
    "(rho|Ii)"
    {
        solver          smoothSolver;
        smoother	symGaussSeidel;
        tolerance       1e-05;
        relTol          0.1;
    }

   "(rho|Ii)Final"
    {
        $rho;
        tolerance       1e-05;
        relTol          0;
    }

    p
    {
        solver          GAMG;
        tolerance       1e-06;
        relTol          0.01;
        smoother        GaussSeidel;
    }

    pFinal
    {
        $p;
        tolerance       1e-06;
        relTol          0;
    }

    "(U|h|R|k|epsilon)"
    {
        solver          smoothSolver;
        smoother        symGaussSeidel;
        tolerance       1e-05;
        relTol          0.1;
    }

    "(U|h|R|k|epsilon)Final"
    {
        $U;
        tolerance       1e-05;
        relTol          0;
    }

    "(Yi|CO2|O2|N2|CH4|H2|H2O|CO)"
    {
        $h;
    }

    "(Yi|CO2|O2|N2|CH4|H2|H2O|CO)Final"
    {
        $Yi;
        tolerance       1e-06;
        relTol          0;
    }
}

PIMPLE
{
    transonic       yes;
    nOuterCorrectors 2;
    nCorrectors     2;
    nNonOrthogonalCorrectors 1;
    momentumPredictor yes;
}

relaxationFactors
{
    fields
    {
        ".*"            0.75;
    }
    equations
    {
       // ".*"            1;
        epsilon 0.8;
        k       0.8;

    }
}


// ************************************************************************* //
