/*--------------------------------*- C++ -*----------------------------------*\
| =========                 |                                                 |
| \\      /  F ield         | OpenFOAM: The Open Source CFD Toolbox           |
|  \\    /   O peration     | Version:  v2012                                 |
|   \\  /    A nd           | Website:  www.openfoam.com                      |
|    \\/     M anipulation  |                                                 |
\*---------------------------------------------------------------------------*/
FoamFile
{
    version     2.0;
    format      ascii;
    class       dictionary;
    location    "constant";
    object      chemistryProperties;
}
// * * * * * * * * * * * * * * * * * * * * * * * * * * * * * * * * * * * * * //
/*
chemistryType
{
    solver            ode;
}

chemistry       on;

initialChemicalTimeStep 1e-07;

EulerImplicitCoeffs
{
    cTauChem        0.05;
    equilibriumRateLimiter on;
}

odeCoeffs
{
   // solver          seulex;
   // eps             0.05;
     solver          Rosenbrock34;  // Rosenbrock34, seulex or rodas23
    absTol          1e-12;
    relTol          1e-7;

}
*/

chemistryType
{
    solver        EulerImplicit;
}

chemistry           on;

initialChemicalTimeStep 1e-07;

EulerImplicitCoeffs
{
    cTauChem        1;
    equilibriumRateLimiter off;
}

odeCoeffs
{
    solver          Rosenbrock34;
    absTol          1e-12;
    relTol          1e-7;
}

// ************************************************************************* //
